Circuit: * Z:\home\qubi\projects\transient\main\modules\phaser\sim\arp_quadra_phaser.asc

WARNING: Specified period is not longer than the sum of Trise, Tfall, and Ton for i2.  Increasing period to 0.03
WARNING: Specified period is not longer than the sum of Trise, Tfall, and Ton for i1.  Increasing period to 0.03
Direct Newton iteration for .op point succeeded.

Date: Sat Jan 17 13:31:03 2026
Total elapsed time: 0.601 seconds.

tnom = 27
temp = 27
method = modified trap
totiter = 60072
traniter = 60056
tranpoints = 30029
accept = 30026
rejected = 3
matrix size = 34
fillins = 36
solver = Normal
Matrix Compiler1: 5.35 KB object code size  0.9/0.6/[0.5]
Matrix Compiler2: 3.71 KB object code size  0.4/0.6/[0.4]

